* Generic small-signal switching diode model for preliminary board simulation.
* Use a vendor or bench-calibrated model for final hardware sign-off.
.model ONSEMI_1N4148WS D(Is=4.352n Rs=0.6458 N=1.906 Cjo=0.764p M=0.03 Eg=1.11)
