* Datasheet-fit placeholder for onsemi BSS84 generated-deck validation.
* Replace with a vendor or bench-calibrated model before final physical sign-off.

.model ONSEMI_BSS84 PMOS(
+ LEVEL=1 VTO=-1.7 KP=0.16 LAMBDA=0.02
+ RD=0.8 RS=0.8 CGS=68p CGD=5p CBD=8p CBS=8p
+ IS=1e-12 PB=0.8
+)
